55

Au 0 0 0
Au 2.33321 0 1.442
Au 2.33321 0 -1.442
Au 1.442 2.33321 0
Au -1.442 2.33321 0
Au 0 1.442 2.33321
Au 0 -1.442 2.33321
Au 1.442 -2.33321 0
Au 0 1.442 -2.33321
Au -2.33321 0 1.442
Au 0 -1.442 -2.33321
Au -2.33321 0 -1.442
Au -1.442 -2.33321 0
Au 4.66641 0 2.884
Au 4.66641 0 -2.884
Au 2.884 4.66641 0
Au -2.884 4.66641 0
Au 0 2.884 4.66641
Au 0 -2.884 4.66641
Au 2.884 -4.66641 0
Au 0 2.884 -4.66641
Au -4.66641 0 2.884
Au 0 -2.884 -4.66641
Au -4.66641 0 -2.884
Au -2.884 -4.66641 0
Au 4.66641 0 0
Au 3.77521 2.33321 1.442
Au 2.33321 1.442 3.77521
Au 2.33321 -1.442 3.77521
Au 3.77521 -2.33321 1.442
Au -3.77521 2.33321 -1.442
Au -2.33321 1.442 -3.77521
Au -4.66641 0 0
Au -2.33321 -1.442 -3.77521
Au -3.77521 -2.33321 -1.442
Au 3.77521 2.33321 -1.442
Au 3.77521 -2.33321 -1.442
Au 2.33321 1.442 -3.77521
Au 2.33321 -1.442 -3.77521
Au -3.77521 2.33321 1.442
Au -2.33321 1.442 3.77521
Au -2.33321 -1.442 3.77521
Au -3.77521 -2.33321 1.442
Au 0 4.66641 0
Au 1.442 3.77521 2.33321
Au 1.442 3.77521 -2.33321
Au -1.442 -3.77521 2.33321
Au 0 -4.66641 0
Au -1.442 -3.77521 -2.33321
Au 1.442 -3.77521 2.33321
Au 1.442 -3.77521 -2.33321
Au -1.442 3.77521 2.33321
Au -1.442 3.77521 -2.33321
Au 0 0 -4.66641
Au 0 0 4.66641